*Heading
** Job name: circle_fine Model name: circle_fine
** Generated by: Abaqus/CAE 2016
*Preprint, echo=NO, model=NO, history=NO, contact=NO
**
** PARTS
**
*Part, name=circle_coarse
*End Part
**  
**
** ASSEMBLY
**
*Assembly, name=Assembly
**  
*Instance, name=circle_coarse-1, part=circle_coarse
*Node
      1,           0.,        -1.25
      2,           0.,         -2.5
      3,           5.,         -2.5
      4,           5.,           0.
      5,         1.25,           0.
      6,        -1.25,           0.
      7,          -5.,           0.
      8,          -5.,         -2.5
      9,           0.,          2.5
     10,           0.,         1.25
     11,           5.,          2.5
     12,          -5.,          2.5
     13,           0.,      -1.5625
     14,           0.,       -1.875
     15,           0.,      -2.1875
     16,  0.294117659,         -2.5
     17,  0.588235319,         -2.5
     18,  0.882352948,         -2.5
     19,   1.17647064,         -2.5
     20,   1.47058821,         -2.5
** ... 635 like lines cut
*Element, type=DC2D3
  1,   1,  13,  56
  2, 203,  16,  17
  3, 225, 216, 189
  4, 202, 171, 172
  5, 204, 176, 174
  6, 211, 210, 175
  7, 213, 184, 212
  8, 189,  13,  14
  9, 203, 188,  15
 10,  16,  15,   2
 11, 241, 216, 204
 12, 162,  55, 160
 13, 205, 204, 174
 14, 163,  54, 162
 15, 282, 163, 222
 16, 180, 179,  22
 17, 232, 231, 196
 18, 183,  27, 182
 19, 166,  42,  43
 20, 233, 195, 229
** ... 1162 like lines cut
*Nset, nset=Set-1, generate
   1,  655,    1
*Elset, elset=Set-1, generate
    1,  1182,     1
** Section: Section-1
*Solid Section, elset=Set-1, material=fluid
,
*End Instance
**  
*Nset, nset=Set-1, instance=circle_coarse-1
 3,
*Elset, elset=_Surf-1_S2, internal, instance=circle_coarse-1
  303,  315,  316,  321,  403,  406,  455,  458,  913,  920,  986,  989,  997,  999, 1051, 1056
*Surface, type=ELEMENT, name=Surf-1
_Surf-1_S2, S2
*Elset, elset=_Surf-2_S2, internal, instance=circle_coarse-1
  26,  33,  99, 102, 110, 112, 164, 169, 603, 615, 621, 658, 700, 703, 750, 753
*Surface, type=ELEMENT, name=Surf-2
_Surf-2_S2, S2
*End Assembly
** 
** MATERIALS
** 
*Material, name=fluid
*Conductivity
1.,
*Density
1.,
** ----------------------------------------------------------------
** 
** STEP: Step-1
** 
*Step, name=Step-1, nlgeom=NO
*Heat Transfer, steady state, deltmx=0.
1., 1., 1e-05, 1., 
** 
** BOUNDARY CONDITIONS
** 
** Name: BC-1 Type: Temperature
*Boundary
Set-1, 11, 11
** 
** LOADS
** 
** Name: Load-1   Type: Surface heat flux
*Dsflux
Surf-1, S, 1.
** Name: Load-2   Type: Surface heat flux
*Dsflux
Surf-2, S, -1.
** 
** OUTPUT REQUESTS
** 
*Restart, write, frequency=0
** 
** FIELD OUTPUT: F-Output-1
** 
*Output, field, variable=PRESELECT
** 
** HISTORY OUTPUT: H-Output-1
** 
*Output, history
*Contact Output
HFLA, HTL, HTLA, SJD, SJDA, SJDT, SJDTA, WEIGHT
*Radiation Output
FTEMP, RADFL, RADFLA, RADTL, RADTLA, VFTOT
*End Step
