*Heading
** Job name: circle_coarse Model name: circle_coarse
** Generated by: Abaqus/CAE 2016
*Preprint, echo=NO, model=NO, history=NO, contact=NO
**
** PARTS
**
*Part, name=circle_coarse
*End Part
**  
**
** ASSEMBLY
**
*Assembly, name=Assembly
**  
*Instance, name=circle_coarse-1, part=circle_coarse
*Node
      1,           0.,        -1.25
      2,           0.,         -2.5
      3,           5.,         -2.5
      4,           5.,           0.
      5,         1.25,           0.
      6,        -1.25,           0.
      7,          -5.,           0.
      8,          -5.,         -2.5
      9,           0.,          2.5
     10,           0.,         1.25
     11,           5.,          2.5
     12,          -5.,          2.5
     13,           0.,  -1.66666663
     14,           0.,  -2.08333325
     15,  0.416666657,         -2.5
     16,  0.833333313,         -2.5
     17,         1.25,         -2.5
     18,   1.66666663,         -2.5
     19,   2.08333325,         -2.5
     20,          2.5,         -2.5
** ... 326 like lines cut
*Element, type=DC2D3
  1, 113,   1,  13
  2, 148, 137, 114
  3, 148, 113, 137
  4, 121,  40,  41
  5, 116, 114,  16
  6, 134,  36,  37
  7, 130, 124,  33
  8, 137,  15, 114
  9,  15,  14,   2
 10, 119,  42, 113
 11, 120, 116,  17
 12, 121,  41, 119
 13, 122, 120,  18
 14, 140, 118, 139
 15, 156, 139, 126
 16, 125,  32, 124
 17, 129, 128,  28
 18, 126, 118,  23
 19, 127,  25,  26
 20,  25,   3,  26
** ... 580 like lines cut
*Nset, nset=Set-1, generate
   1,  346,    1
*Elset, elset=Set-1, generate
   1,  600,    1
** Section: Section-1
*Solid Section, elset=Set-1, material=fluid
,
*End Instance
**  
*Nset, nset=Set-1, instance=circle_coarse-1
 3,
*Elset, elset=_Surf-1_S2, internal, instance=circle_coarse-1
 157, 165, 169, 196, 208, 233, 469, 511, 512, 513, 533
*Elset, elset=_Surf-1_S1, internal, instance=circle_coarse-1
 474,
*Surface, type=ELEMENT, name=Surf-1
_Surf-1_S2, S2
_Surf-1_S1, S1
*Elset, elset=_Surf-2_S2, internal, instance=circle_coarse-1
  20,  62,  63,  64,  84, 308, 316, 320, 347, 359, 378
*Elset, elset=_Surf-2_S1, internal, instance=circle_coarse-1
 25,
*Surface, type=ELEMENT, name=Surf-2
_Surf-2_S2, S2
_Surf-2_S1, S1
*End Assembly
** 
** MATERIALS
** 
*Material, name=fluid
*Conductivity
1.,
*Density
1.,
** ----------------------------------------------------------------
** 
** STEP: Step-1
** 
*Step, name=Step-1, nlgeom=NO
*Heat Transfer, steady state, deltmx=0.
1., 1., 1e-05, 1., 
** 
** BOUNDARY CONDITIONS
** 
** Name: BC-1 Type: Temperature
*Boundary
Set-1, 11, 11
** 
** LOADS
** 
** Name: Load-1   Type: Surface heat flux
*Dsflux
Surf-1, S, 1.
** Name: Load-2   Type: Surface heat flux
*Dsflux
Surf-2, S, -1.
** 
** OUTPUT REQUESTS
** 
*Restart, write, frequency=0
** 
** FIELD OUTPUT: F-Output-1
** 
*Output, field, variable=PRESELECT
** 
** HISTORY OUTPUT: H-Output-1
** 
*Output, history
*Contact Output
HFLA, HTL, HTLA, SJD, SJDA, SJDT, SJDTA, WEIGHT
*Radiation Output
FTEMP, RADFL, RADFLA, RADTL, RADTLA, VFTOT
*End Step
