*Heading
** Job name: pill_coarse Model name: pill_coarse
** Generated by: Abaqus/CAE 2016
*Preprint, echo=NO, model=NO, history=NO, contact=NO
**
** PARTS
**
*Part, name=Part-1
*End Part
**  
**
** ASSEMBLY
**
*Assembly, name=Assembly
**  
*Instance, name=Part-1-1, part=Part-1
*Node
      1,           0., -0.589246213
      2,           0.,         -2.5
      3,           5.,         -2.5
      4,  0.589246213,           0.
      5,           5.,           0.
      6,           0.,  0.589246213
      7,           0.,          2.5
      8,          -5.,          2.5
      9, -0.589246213,           0.
     10,          -5.,           0.
     11,          -5.,         -2.5
     12,  -0.58926034,  -1.17850661
     13,  -1.17850661,  -0.58926034
     14,   0.58926034,   1.17850661
     15,   1.17850661,   0.58926034
     16,           5.,          2.5
     17,           0., -0.971396983
     18,           0.,  -1.35354769
     19,           0.,  -1.73569846
     20,           0.,  -2.11784935
** ... 303 like lines cut
*Element, type=DC2D3
  1,   1,  17, 117
  2, 117,  36,   1
  3,  17,  18, 118
  4, 118, 117,  17
  5,  18,  19, 119
  6, 119, 118,  18
  7,  19,  20, 120
  8, 120, 119,  19
  9,  20,   2,  21
 10,  21, 120,  20
 11,  36, 117, 121
 12, 121,   4,  36
 13, 117, 118, 122
 14, 122, 121, 117
 15, 118, 119, 123
 16, 123, 122, 118
 17, 119, 120, 124
 18, 124, 123, 119
 19, 120,  21,  22
 20,  22, 124, 120
** ... 536 like lines cut
*Nset, nset=Set-1, generate
   1,  323,    1
*Elset, elset=Set-1, generate
   1,  556,    1
** Section: Section-1
*Solid Section, elset=Set-1, material=fluid
,
*End Instance
**  
*Nset, nset=Set-1, instance=Part-1-1
 3,
*Elset, elset=_Surf-1_S2, internal, instance=Part-1-1
 250, 259, 260, 263, 299, 300
*Elset, elset=_Surf-1_S1, internal, instance=Part-1-1, generate
 232,  240,    2
*Surface, type=ELEMENT, name=Surf-1
_Surf-1_S2, S2
_Surf-1_S1, S1
*Elset, elset=_Surf-2_S1, internal, instance=Part-1-1, generate
 112,  120,    2
*Elset, elset=_Surf-2_S2, internal, instance=Part-1-1
 412, 421, 422, 425, 452, 499
*Surface, type=ELEMENT, name=Surf-2
_Surf-2_S1, S1
_Surf-2_S2, S2
*End Assembly
** 
** MATERIALS
** 
*Material, name=fluid
*Conductivity
1.,
*Density
1.,
** ----------------------------------------------------------------
** 
** STEP: Step-1
** 
*Step, name=Step-1, nlgeom=NO
*Heat Transfer, steady state, deltmx=0.
1., 1., 1e-05, 1., 
** 
** BOUNDARY CONDITIONS
** 
** Name: BC-1 Type: Temperature
*Boundary
Set-1, 11, 11
** 
** LOADS
** 
** Name: Load-1   Type: Surface heat flux
*Dsflux
Surf-1, S, 1.
** Name: Load-2   Type: Surface heat flux
*Dsflux
Surf-2, S, -1.
** 
** OUTPUT REQUESTS
** 
*Restart, write, frequency=0
** 
** FIELD OUTPUT: F-Output-1
** 
*Output, field, variable=PRESELECT
** 
** HISTORY OUTPUT: H-Output-1
** 
*Output, history
*Contact Output
HFLA, HTL, HTLA, SJD, SJDA, SJDT, SJDTA, WEIGHT
*Radiation Output
FTEMP, RADFL, RADFLA, RADTL, RADTLA, VFTOT
*End Step
