*Heading
** Job name: plill_fine Model name: pill_fine
** Generated by: Abaqus/CAE 2016
*Preprint, echo=NO, model=NO, history=NO, contact=NO
**
** PARTS
**
*Part, name=Part-1
*End Part
**  
**
** ASSEMBLY
**
*Assembly, name=Assembly
**  
*Instance, name=Part-1-1, part=Part-1
*Node
      1,           0., -0.589246213
      2,           0.,         -2.5
      3,           5.,         -2.5
      4,  0.589246213,           0.
      5,           5.,           0.
      6,           0.,  0.589246213
      7,           0.,          2.5
      8,          -5.,          2.5
      9, -0.589246213,           0.
     10,          -5.,           0.
     11,          -5.,         -2.5
     12,  -0.58926034,  -1.17850661
     13,  -1.17850661,  -0.58926034
     14,   0.58926034,   1.17850661
     15,   1.17850661,   0.58926034
     16,           5.,          2.5
     17,           0., -0.828090429
     18,           0.,   -1.0669347
     19,           0.,  -1.30577886
     20,           0.,  -1.54462314
** ... 631 like lines cut
*Element, type=DC2D3
  1,   1,  17, 171
  2, 171,  49,   1
  3,  17,  18, 172
  4, 172, 171,  17
  5,  18,  19, 173
  6, 173, 172,  18
  7,  19,  20, 174
  8, 174, 173,  19
  9,  20,  21, 175
 10, 175, 174,  20
 11,  21,  22, 176
 12, 176, 175,  21
 13,  22,  23, 177
 14, 177, 176,  22
 15,  23,   2,  24
 16,  24, 177,  23
 17,  49, 171, 178
 18, 178,  48,  49
 19, 171, 172, 179
 20, 179, 178, 171
** ... 1154 like lines cut
*Nset, nset=Set-1, generate
   1,  651,    1
*Elset, elset=Set-1, generate
    1,  1174,     1
** Section: Section-1
*Solid Section, elset=Set-1, material=fluid
,
*End Instance
**  
*Nset, nset=Set-1, instance=Part-1-1
 3,
*Elset, elset=_Surf-1_S2, internal, instance=Part-1-1
 586, 600, 606, 655, 691, 694, 757, 760
*Elset, elset=_Surf-1_S1, internal, instance=Part-1-1, generate
 562,  576,    2
*Surface, type=ELEMENT, name=Surf-1
_Surf-1_S2, S2
_Surf-1_S1, S1
*Elset, elset=_Surf-2_S1, internal, instance=Part-1-1, generate
 274,  288,    2
*Elset, elset=_Surf-2_S2, internal, instance=Part-1-1
  896,  910,  916,  947,  991,  994, 1059, 1062
*Surface, type=ELEMENT, name=Surf-2
_Surf-2_S1, S1
_Surf-2_S2, S2
*End Assembly
** 
** MATERIALS
** 
*Material, name=fluid
*Conductivity
1.,
*Density
1.,
** ----------------------------------------------------------------
** 
** STEP: Step-1
** 
*Step, name=Step-1, nlgeom=NO
*Heat Transfer, steady state, deltmx=0.
1., 1., 1e-05, 1., 
** 
** BOUNDARY CONDITIONS
** 
** Name: BC-1 Type: Temperature
*Boundary
Set-1, 11, 11
** 
** LOADS
** 
** Name: Load-1   Type: Surface heat flux
*Dsflux
Surf-1, S, 1.
** Name: Load-2   Type: Surface heat flux
*Dsflux
Surf-2, S, -1.
** 
** OUTPUT REQUESTS
** 
*Restart, write, frequency=0
** 
** FIELD OUTPUT: F-Output-1
** 
*Output, field, variable=PRESELECT
** 
** HISTORY OUTPUT: H-Output-1
** 
*Output, history
*Contact Output
HFLA, HTL, HTLA, SJD, SJDA, SJDT, SJDTA, WEIGHT
*Radiation Output
FTEMP, RADFL, RADFLA, RADTL, RADTLA, VFTOT
*End Step
